data/models/ieee33/ieee37_VLN_Node.Txt

LINE-GROUND and LINE-LINE VOLTAGES BY BUS & NODE

Bus       Node    VLN (kV)   Angle      pu     Base kV    Node-Node   VLL (kV)  Angle      pu

SOURCEBUS 1       7.2975 /_   -0.1   0.99839    12.660        1-2      12.64 /_   29.9   0.99839
   -      2       7.2975 /_ -120.1   0.99839    12.660        2-3      12.64 /_  -90.1   0.99839
   -      3       7.2975 /_  119.9   0.99839    12.660        3-1      12.64 /_  149.9   0.99839
N1 ...... 1       7.2763 /_   -0.1    0.9955    12.660        1-2     12.603 /_   29.9    0.9955
   -      2       7.2763 /_ -120.1    0.9955    12.660        2-3     12.603 /_  -90.1    0.9955
   -      3       7.2763 /_  119.9    0.9955    12.660        3-1     12.603 /_  149.9    0.9955
N2 ...... 1        7.188 /_   -0.1   0.98342    12.660        1-2      12.45 /_   29.9   0.98342
   -      2        7.188 /_ -120.1   0.98342    12.660        2-3      12.45 /_  -90.1   0.98342
   -      3        7.188 /_  119.9   0.98342    12.660        3-1      12.45 /_  149.9   0.98342
N3 ...... 1       7.1443 /_   -0.1   0.97743    12.660        1-2     12.374 /_   29.9   0.97743
   -      2       7.1443 /_ -120.1   0.97743    12.660        2-3     12.374 /_  -90.1   0.97743
   -      3       7.1443 /_  119.9   0.97743    12.660        3-1     12.374 /_  149.9   0.97743
N4 ...... 1       7.1015 /_   -0.1   0.97158    12.660        1-2       12.3 /_   29.9   0.97158
   -      2       7.1015 /_ -120.1   0.97158    12.660        2-3       12.3 /_  -90.1   0.97158
   -      3       7.1015 /_  119.9   0.97158    12.660        3-1       12.3 /_  149.9   0.97158
N5 ...... 1       7.0004 /_   -0.3   0.95774    12.660        1-2     12.125 /_   29.7   0.95774
   -      2       7.0004 /_ -120.3   0.95774    12.660        2-3     12.125 /_  -90.3   0.95774
   -      3       7.0004 /_  119.7   0.95774    12.660        3-1     12.125 /_  149.7   0.95774
N6 ...... 1        6.976 /_   -0.5   0.95441    12.660        1-2     12.083 /_   29.5   0.95441
   -      2        6.976 /_ -120.5   0.95441    12.660        2-3     12.083 /_  -90.5   0.95441
   -      3        6.976 /_  119.5   0.95441    12.660        3-1     12.083 /_  149.5   0.95441
N7 ...... 1       6.8824 /_   -0.7    0.9416    12.660        1-2     11.921 /_   29.3    0.9416
   -      2       6.8824 /_ -120.7    0.9416    12.660        2-3     11.921 /_  -90.7    0.9416
   -      3       6.8824 /_  119.3    0.9416    12.660        3-1     11.921 /_  149.3    0.9416
N8 ...... 1       6.8395 /_   -0.7   0.93573    12.660        1-2     11.846 /_   29.3   0.93573
   -      2       6.8395 /_ -120.7   0.93573    12.660        2-3     11.846 /_  -90.7   0.93573
   -      3       6.8395 /_  119.3   0.93573    12.660        3-1     11.846 /_  149.3   0.93573
N9 ...... 1       6.7998 /_   -0.8   0.93029    12.660        1-2     11.778 /_   29.2   0.93029
   -      2       6.7998 /_ -120.8   0.93029    12.660        2-3     11.778 /_  -90.8   0.93029
   -      3       6.7998 /_  119.2   0.93029    12.660        3-1     11.778 /_  149.2   0.93029
N10 ..... 1       6.7939 /_   -0.8   0.92949    12.660        1-2     11.767 /_   29.2   0.92949
   -      2       6.7939 /_ -120.8   0.92949    12.660        2-3     11.767 /_  -90.8   0.92949
   -      3       6.7939 /_  119.2   0.92949    12.660        3-1     11.767 /_  149.2   0.92949
N11 ..... 1       6.7837 /_   -0.8   0.92809    12.660        1-2      11.75 /_   29.2   0.92809
   -      2       6.7837 /_ -120.8   0.92809    12.660        2-3      11.75 /_  -90.8   0.92809
   -      3       6.7837 /_  119.2   0.92809    12.660        3-1      11.75 /_  149.2   0.92809
N12 ..... 1       6.7422 /_   -0.9   0.92242    12.660        1-2     11.678 /_   29.1   0.92242
   -      2       6.7422 /_ -120.9   0.92242    12.660        2-3     11.678 /_  -90.9   0.92242
   -      3       6.7422 /_  119.1   0.92242    12.660        3-1     11.678 /_  149.1   0.92242
N13 ..... 1       6.7268 /_   -0.9   0.92032    12.660        1-2     11.651 /_   29.1   0.92032
   -      2       6.7268 /_ -120.9   0.92032    12.660        2-3     11.651 /_  -90.9   0.92032
   -      3       6.7268 /_  119.1   0.92032    12.660        3-1     11.651 /_  149.1   0.92032
N14 ..... 1       6.7173 /_   -1.0   0.91901    12.660        1-2     11.635 /_   29.0   0.91901
   -      2       6.7173 /_ -121.0   0.91901    12.660        2-3     11.635 /_  -91.0   0.91901
   -      3       6.7173 /_  119.0   0.91901    12.660        3-1     11.635 /_  149.0   0.91901
N15 ..... 1       6.7081 /_   -1.0   0.91775    12.660        1-2     11.619 /_   29.0   0.91775
   -      2       6.7081 /_ -121.0   0.91775    12.660        2-3     11.619 /_  -91.0   0.91775
   -      3       6.7081 /_  119.0   0.91775    12.660        3-1     11.619 /_  149.0   0.91775
N16 ..... 1       6.6944 /_   -1.1   0.91588    12.660        1-2     11.595 /_   28.9   0.91588
   -      2       6.6944 /_ -121.1   0.91588    12.660        2-3     11.595 /_  -91.1   0.91588
   -      3       6.6944 /_  118.9   0.91588    12.660        3-1     11.595 /_  148.9   0.91588
N17 ..... 1       6.6903 /_   -1.1   0.91533    12.660        1-2     11.588 /_   28.9   0.91533
   -      2       6.6903 /_ -121.1   0.91533    12.660        2-3     11.588 /_  -91.1   0.91533
   -      3       6.6903 /_  118.9   0.91533    12.660        3-1     11.588 /_  148.9   0.91533
N18 ..... 1       7.2666 /_   -0.1   0.99416    12.660        1-2     12.586 /_   29.9   0.99416
   -      2       7.2666 /_ -120.1   0.99416    12.660        2-3     12.586 /_  -90.1   0.99416
   -      3       7.2666 /_  119.9   0.99416    12.660        3-1     12.586 /_  149.9   0.99416
N19 ..... 1       7.1885 /_    0.1   0.98348    12.660        1-2     12.451 /_   30.1   0.98348
   -      2       7.1885 /_ -119.9   0.98348    12.660        2-3     12.451 /_  -89.9   0.98348
   -      3       7.1885 /_  120.1   0.98348    12.660        3-1     12.451 /_  150.1   0.98348
N20 ..... 1       7.1833 /_    0.1   0.98277    12.660        1-2     12.442 /_   30.1   0.98277
   -      2       7.1833 /_ -119.9   0.98277    12.660        2-3     12.442 /_  -89.9   0.98277
   -      3       7.1833 /_  120.1   0.98277    12.660        3-1     12.442 /_  150.1   0.98277
N21 ..... 1       7.1786 /_    0.1   0.98213    12.660        1-2     12.434 /_   30.1   0.98213
   -      2       7.1786 /_ -119.9   0.98213    12.660        2-3     12.434 /_  -89.9   0.98213
   -      3       7.1786 /_  120.1   0.98213    12.660        3-1     12.434 /_  150.1   0.98213
N22 ..... 1       7.1619 /_   -0.1   0.97983    12.660        1-2     12.405 /_   29.9   0.97983
   -      2       7.1619 /_ -120.1   0.97983    12.660        2-3     12.405 /_  -90.1   0.97983
   -      3       7.1619 /_  119.9   0.97983    12.660        3-1     12.405 /_  149.9   0.97983
N23 ..... 1       7.1131 /_   -0.2   0.97317    12.660        1-2      12.32 /_   29.8   0.97317
   -      2       7.1131 /_ -120.2   0.97317    12.660        2-3      12.32 /_  -90.2   0.97317
   -      3       7.1131 /_  119.8   0.97317    12.660        3-1      12.32 /_  149.8   0.97317
N24 ..... 1       7.0888 /_   -0.2   0.96984    12.660        1-2     12.278 /_   29.8   0.96984
   -      2       7.0888 /_ -120.2   0.96984    12.660        2-3     12.278 /_  -90.2   0.96984
   -      3       7.0888 /_  119.8   0.96984    12.660        3-1     12.278 /_  149.8   0.96984
N25 ..... 1       6.9917 /_   -0.3   0.95656    12.660        1-2      12.11 /_   29.7   0.95656
   -      2       6.9917 /_ -120.3   0.95656    12.660        2-3      12.11 /_  -90.3   0.95656
   -      3       6.9917 /_  119.7   0.95656    12.660        3-1      12.11 /_  149.7   0.95656
N26 ..... 1       6.9806 /_   -0.3   0.95503    12.660        1-2     12.091 /_   29.7   0.95503
   -      2       6.9806 /_ -120.3   0.95503    12.660        2-3     12.091 /_  -90.3   0.95503
   -      3       6.9806 /_  119.7   0.95503    12.660        3-1     12.091 /_  149.7   0.95503
N27 ..... 1       6.9371 /_   -0.4   0.94909    12.660        1-2     12.015 /_   29.6   0.94909
   -      2       6.9371 /_ -120.4   0.94909    12.660        2-3     12.015 /_  -90.4   0.94909
   -      3       6.9371 /_  119.6   0.94909    12.660        3-1     12.015 /_  149.6   0.94909
N28 ..... 1       6.9072 /_   -0.5     0.945    12.660        1-2     11.964 /_   29.5     0.945
   -      2       6.9072 /_ -120.5     0.945    12.660        2-3     11.964 /_  -90.5     0.945
   -      3       6.9072 /_  119.5     0.945    12.660        3-1     11.964 /_  149.5     0.945
N29 ..... 1       6.8946 /_   -0.5   0.94326    12.660        1-2     11.942 /_   29.5   0.94326
   -      2       6.8946 /_ -120.5   0.94326    12.660        2-3     11.942 /_  -90.5   0.94326
   -      3       6.8946 /_  119.5   0.94326    12.660        3-1     11.942 /_  149.5   0.94326
N30 ..... 1       6.8656 /_   -0.6    0.9393    12.660        1-2     11.892 /_   29.4    0.9393
   -      2       6.8656 /_ -120.6    0.9393    12.660        2-3     11.892 /_  -90.6    0.9393
   -      3       6.8656 /_  119.4    0.9393    12.660        3-1     11.892 /_  149.4    0.9393
N31 ..... 1       6.8592 /_   -0.6   0.93843    12.660        1-2     11.881 /_   29.4   0.93843
   -      2       6.8592 /_ -120.6   0.93843    12.660        2-3     11.881 /_  -90.6   0.93843
   -      3       6.8592 /_  119.4   0.93843    12.660        3-1     11.881 /_  149.4   0.93843
N32 ..... 1       6.8573 /_   -0.6   0.93816    12.660        1-2     11.877 /_   29.4   0.93816
   -      2       6.8573 /_ -120.6   0.93816    12.660        2-3     11.877 /_  -90.6   0.93816
   -      3       6.8573 /_  119.4   0.93816    12.660        3-1     11.877 /_  149.4   0.93816
